  37

  O             1.654104            -2.108060            -1.587075
  O            -0.526169            -2.513544            -1.174096
  C             0.537150            -2.671063            -1.786764
  H             0.527499            -3.401721            -2.615711
  O             1.866797             2.236070             1.180184
  O             2.946151             0.272945             1.382121
  C             2.738628             1.475550             1.659291
  H             3.410980             1.918495             2.414972
  O            -2.106049            -0.130305            -1.490690
  O             2.809527             0.486539            -1.438213
  O             1.382451             2.213978            -1.624194
  C             2.384885             1.541889            -1.958105
  H             2.965823             1.931570            -2.813410
  O            -0.584441            -2.098590             1.776050
  O             1.609912            -2.281859             1.281187
  C             0.576307            -2.489457             1.976702
  H             0.733871            -3.106474             2.878451
 Fe            -1.396192            -1.141067             0.150473
  O            -2.203912             0.274962             1.466602
 Fe             0.148470             1.859447             0.029179
  O            -0.904179             2.103791             1.700791
  O            -1.425527             1.996524            -1.166060
 Fe             1.981819            -0.843969            -0.028618
  O             0.287423            -0.023408             0.040073
  C            -1.845344             1.324054             2.022954
  H            -2.420176             1.633154             2.913996
  C            -2.066457             1.081653            -1.755758
  H            -2.672760             1.412663            -2.616461
  N            -5.515820            -0.072341             0.495911
  N            -4.965039             0.637726            -0.129774
  O            -2.744409            -2.031597             0.238135
  O             0.240212             4.067771            -0.006181
  H             0.710570             4.243420            -0.831888
  H             0.879619             4.249023             0.695781
  O             3.996325            -1.719637            -0.363906
  H             4.470077            -0.986614            -0.778107
  H             3.775744            -2.312159            -1.097030
